Mason's Sims/PTI/PSSE35/EXAMPLE/bench.raw
@!IC, SBASE,REV,XFRRAT,NXFRAT,BASFRQ
0,   100.00, 35,     0,     1, 60.00     / PSS(R)E-35.0    THU, FEB 21 2019   9:14
 POWER TECHNOLOGIES STANDARD BENCHMARK CASE
 1648 BUSES, 2602 BRANCHES
GENERAL, THRSHZ=0.0001, PQBRAK=0.7, BLOWUP=5.0, MaxIsolLvls=4, CAMaxReptSln=20, ChkDupCntLbl=0
GAUSS, ITMX=100, ACCP=1.6, ACCQ=1.6, ACCM=1.0, TOL=0.0001
NEWTON, ITMXN=20, ACCN=1.0, TOLN=0.1, VCTOLQ=0.1, VCTOLV=0.00001, DVLIM=0.99, NDVFCT=0.99
ADJUST, ADJTHR=0.005, ACCTAP=1.0, TAPLIM=0.05, SWVBND=100.0, MXTPSS=99, MXSWIM=10
TYSL, ITMXTY=20, ACCTY=1.0, TOLTY=0.00001
RATING, 1, "RATE1 ", "RATING SET 1                    "
RATING, 2, "RATE2 ", "RATING SET 2                    "
RATING, 3, "RATE3 ", "RATING SET 3                    "
RATING, 4, "RATE4 ", "RATING SET 4                    "
RATING, 5, "RATE5 ", "RATING SET 5                    "
RATING, 6, "RATE6 ", "RATING SET 6                    "
RATING, 7, "RATE7 ", "RATING SET 7                    "
RATING, 8, "RATE8 ", "RATING SET 8                    "
RATING, 9, "RATE9 ", "RATING SET 9                    "
RATING,10, "RATE10", "RATING SET 10                   "
RATING,11, "RATE11", "RATING SET 11                   "
RATING,12, "RATE12", "RATING SET 12                   "
0 / END OF SYSTEM-WIDE DATA, BEGIN BUS DATA
@!   I,'NAME        ', BASKV, IDE,AREA,ZONE,OWNER, VM,        VA,    NVHI,   NVLO,   EVHI,   EVLO
     1,'XXACAOCC    ',   0.0000,1,   1,   1,   1,1.02586,  19.1748,1.10000,0.90000,1.10000,0.90000
     2,'XXAXCCOA    ',   0.0000,1,   1,   1,   1,0.98805,  13.0406,1.10000,0.90000,1.10000,0.90000
     3,'XXOOYOAO    ',   0.0000,1,   1,   1,   1,1.01993,  14.5108,1.10000,0.90000,1.10000,0.90000
     4,'XXACCCCC    ',   0.0000,2,   1,   1,   1,1.00145,   8.1590,1.10000,0.90000,1.10000,0.90000
     5,'XXCAOOOO    ',   0.0000,1,   1,   1,   1,0.99628,   2.9506,1.10000,0.90000,1.10000,0.90000
     6,'XXACACAO    ',   0.0000,2,   1,   1,   1,1.03000,   5.1074,1.10000,0.90000,1.10000,0.90000
     7,'XXCOOOAO    ',   0.0000,1,   1,   1,   1,1.00572,   5.3697,1.10000,0.90000,1.10000,0.90000
     8,'XXAAOCAO    ',   0.0000,1,   1,   1,   1,1.01413,   7.7957,1.10000,0.90000,1.10000,0.90000
     9,'XXACACAO    ',   0.0000,1,   1,   1,   1,1.00493,   5.6616,1.10000,0.90000,1.10000,0.90000
    10,'XXAAOCAO    ',   0.0000,1,   1,   1,   1,1.02249,   4.7091,1.10000,0.90000,1.10000,0.90000
    11,'XXCOOOAO    ',   0.0000,1,   1,   1,   1,1.02432,   3.7662,1.10000,0.90000,1.10000,0.90000
    12,'XXCOOYCC    ',   0.0000,1,   1,   1,   1,1.01764,   2.1039,1.10000,0.90000,1.10000,0.90000
    13,'XXCOOYCC    ',   0.0000,1,   1,   1,   1,0.99609,   2.9303,1.10000,0.90000,1.10000,0.90000
    14,'XXAAOCOA    ',   0.0000,1,   1,   1,   1,0.99738,   2.9214,1.10000,0.90000,1.10000,0.90000
    15,'XXAAOCOA    ',   0.0000,2,   1,   1,   1,1.02576,   2.0378,1.10000,0.90000,1.10000,0.90000
    16,'XXOOOCAO    ',   0.0000,1,   1,   1,   1,0.99690,   3.0595,1.10000,0.90000,1.10000,0.90000
    17,'XXAXCCOA    ',   0.0000,1,   1,   1,   1,1.02286,  16.2689,1.10000,0.90000,1.10000,0.90000
    18,'XXCCAAOO    ',   0.0000,2,   1,   1,   1,0.98263,   8.4435,1.10000,0.90000,1.10000,0.90000
    19,'XXOOOOOC    ',   0.0000,1,   1,   1,   1,1.00693,  14.7166,1.10000,0.90000,1.10000,0.90000
    20,'XXOOOCAO    ',   0.0000,1,   1,   1,   1,0.99677,   5.4540,1.10000,0.90000,1.10000,0.90000
    21,'XXAAAOOC    ',   0.0000,2,   1,   1,   1,1.00799,   6.5758,1.10000,0.90000,1.10000,0.90000
    22,'XXCACOCA    ',   0.0000,1,   2,   1,   1,0.97672,   5.2487,1.10000,0.90000,1.10000,0.90000
    23,'XXCACOCA    ',   0.0000,1,   2,   1,   1,1.00290,   3.7403,1.10000,0.90000,1.10000,0.90000
    24,'XXCAAOAO    ',   0.0000,1,   2,   1,   1,0.97984,   6.5661,1.10000,0.90000,1.10000,0.90000
    25,'XXCCAAAC    ',   0.0000,1,   2,   1,   1,1.02964,  12.4649,1.10000,0.90000,1.10000,0.90000
    26,'XXOACACC    ',   0.0000,2,   2,   1,   1,1.05000,  13.3095,1.10000,0.90000,1.10000,0.90000
    27,'XXOAAOOA    ',   0.0000,2,   2,   1,   1,1.05000,   5.9294,1.10000,0.90000,1.10000,0.90000
    28,'XXCOOOCC    ',   0.0000,2,   2,   1,   1,0.98736,   1.9479,1.10000,0.90000,1.10000,0.90000
    29,'XXOAOOCA    ',   0.0000,1,   2,   1,   1,1.02297,  10.7490,1.10000,0.90000,1.10000,0.90000
    30,'XXAYOOOC    ',   0.0000,1,   2,   1,   1,1.02299,  10.9999,1.10000,0.90000,1.10000,0.90000
    31,'XXCCOAOA    ',   0.0000,1,   2,   1,   1,1.02536,  10.9480,1.10000,0.90000,1.10000,0.90000
    32,'XXCCOAOA    ',   0.0000,1,   2,   1,   1,1.04281,  10.5012,1.10000,0.90000,1.10000,0.90000
    33,'XXCCOACO    ',   0.0000,1,   2,   1,   1,0.99862,  11.9619,1.10000,0.90000,1.10000,0.90000
    34,'XXCCOACO    ',   0.0000,1,   2,   1,   1,1.01838,   9.7268,1.10000,0.90000,1.10000,0.90000
    35,'XXOOACCC    ',   0.0000,1,   2,   1,   1,1.00853,   1.4425,1.10000,0.90000,1.10000,0.90000
    36,'XXACAOCA    ',   0.0000,1,   2,   1,   1,1.00871,   2.4156,1.10000,0.90000,1.10000,0.90000
    37,'XXCAOCCC    ',   0.0000,1,   2,   1,   1,1.01967,   8.2672,1.10000,0.90000,1.10000,0.90000
    38,'XXCAOCCC    ',   0.0000,1,   2,   1,   1,1.03112,   8.1942,1.10000,0.90000,1.10000,0.90000
    39,'XXAAOCOO    ',   0.0000,1,   2,   1,   1,1.01716,   9.0742,1.10000,0.90000,1.10000,0.90000
    40,'XXAAOCOO    ',   0.0000,1,   2,   1,   1,1.04374,   8.4413,1.10000,0.90000,1.10000,0.90000
    41,'XXCAOOOC    ',   0.0000,2,   2,   1,   1,1.03000,  15.1461,1.10000,0.90000,1.10000,0.90000
    42,'XXCAOOOC    ',   0.0000,1,   2,   1,   1,1.02568,  13.2591,1.10000,0.90000,1.10000,0.90000
    43,'XXOOCAAO    ',   0.0000,1,   2,   1,   1,1.05312,  12.9945,1.10000,0.90000,1.10000,0.90000
    44,'XXXAOCAA    ',   0.0000,2,   2,   1,   1,1.05000,  12.0559,1.10000,0.90000,1.10000,0.90000
    45,'XXCCOACC    ',   0.0000,1,   2,   1,   1,1.02991,  12.8538,1.10000,0.90000,1.10000,0.90000
    46,'XXOCAOOO    ',   0.0000,1,   2,   1,   1,1.05089,  12.3669,1.10000,0.90000,1.10000,0.90000
    47,'XXOCOCOC    ',   0.0000,1,   2,   1,   1,0.99458,   2.3731,1.10000,0.90000,1.10000,0.90000
    48,'XXCAOCOC    ',   0.0000,1,   2,   1,   1,1.00838,   7.6514,1.10000,0.90000,1.10000,0.90000
    49,'XXAA.COA    ',   0.0000,1,   2,   1,   1,1.05141,  12.3039,1.10000,0.90000,1.10000,0.90000
    50,'XXCOOACC    ',   0.0000,1,   2,   1,   1,1.00932,   7.8570,1.10000,0.90000,1.10000,0.90000
    51,'XXCOCOCC    ',   0.0000,2,   3,   1,   1,1.03000,  16.9938,1.10000,0.90000,1.10000,0.90000
    52,'XXCOAOCC    ',   0.0000,1,   3,   1,   1,0.98623,  13.0980,1.10000,0.90000,1.10000,0.90000
    53,'XXCAOCCC    ',   0.0000,2,   3,   1,   1,1.01467,  13.4606,1.10000,0.90000,1.10000,0.90000
    54,'XXC.OOOO    ',   0.0000,2,   3,   1,   1,1.01134,   9.9247,1.10000,0.90000,1.10000,0.90000
    55,'XXC.OOOO    ',   0.0000,1,   3,   1,   1,1.01680,  11.8754,1.10000,0.90000,1.10000,0.90000
    56,'XXC.OOOO    ',   0.0000,2,   3,   1,   1,1.02230,   6.2059,1.10000,0.90000,1.10000,0.90000
    57,'XXOAYCCA    ',   0.0000,2,   3,   1,   1,1.00932,   4.5288,1.10000,0.90000,1.10000,0.90000
    58,'XXOAOOOA    ',   0.0000,2,   3,   1,   1,0.98838,   5.4258,1.10000,0.90000,1.10000,0.90000
    59,'XXOCAAOO    ',   0.0000,1,   4,   1,   1,1.01278,   4.9665,1.10000,0.90000,1.10000,0.90000
    60,'XXOCAAOO    ',   0.0000,1,   4,   1,   1,1.02044,   3.6892,1.10000,0.90000,1.10000,0.90000
    61,'XXOCAAOO    ',   0.0000,1,   4,   1,   1,0.99185,   3.9348,1.10000,0.90000,1.10000,0.90000
    62,'XXCCOOCA    ',   0.0000,1,   4,   1,   1,1.02238,  14.6680,1.10000,0.90000,1.10000,0.90000
    63,'XXCAOCAO    ',   0.0000,2,   4,   1,   1,1.03000,  15.6752,1.10000,0.90000,1.10000,0.90000
    64,'XXCCCOCY    ',   0.0000,1,   4,   1,   1,1.00956,  13.4290,1.10000,0.90000,1.10000,0.90000
    65,'XXCOAOAO    ',   0.0000,1,   4,   1,   1,0.99592,   4.5644,1.10000,0.90000,1.10000,0.90000
    66,'XXCACAAO    ',   0.0000,1,   4,   1,   1,1.00522,   7.5419,1.10000,0.90000,1.10000,0.90000
    67,'XXACOCOO    ',   0.0000,1,   4,   1,   1,0.99120,  11.7123,1.10000,0.90000,1.10000,0.90000
    68,'XXCACCOA    ',   0.0000,1,   4,   1,   1,0.99622,   6.2721,1.10000,0.90000,1.10000,0.90000
    69,'XXACOCOO    ',   0.0000,2,   4,   1,   1,1.01059,   8.3319,1.10000,0.90000,1.10000,0.90000
    70,'XXAAOOCA    ',   0.0000,1,   4,   1,   1,0.99478,   6.9274,1.10000,0.90000,1.10000,0.90000
    71,'XXCOOOOA    ',   0.0000,1,   4,   1,   1,0.99420,  13.7642,1.10000,0.90000,1.10000,0.90000
    72,'XXAAACOA    ',   0.0000,1,   4,   1,   1,1.02820,   6.9877,1.10000,0.90000,1.10000,0.90000
    73,'XXOACAOC    ',   0.0000,1,   4,   1,   1,1.01860,   8.9541,1.10000,0.90000,1.10000,0.90000
    74,'XXOOAOAC    ',   0.0000,1,   4,   1,   1,1.01064,  11.3858,1.10000,0.90000,1.10000,0.90000
    75,'XXOOAOAC    ',   0.0000,1,   4,   1,   1,0.99725,   9.6945,1.10000,0.90000,1.10000,0.90000
    76,'XXOOOOAC    ',   0.0000,1,   5,   1,   1,1.02488,  13.3918,1.10000,0.90000,1.10000,0.90000
    77,'XXOOOOAC    ',   0.0000,1,   5,   1,   1,1.04082,  11.4098,1.10000,0.90000,1.10000,0.90000
    78,'XXOOOOAC    ',   0.0000,1,   5,   1,   1,1.03853,   9.0469,1.10000,0.90000,1.10000,0.90000
    79,'XXC.OOOO    ',   0.0000,2,   5,   1,   1,1.03043,  11.3138,1.10000,0.90000,1.10000,0.90000
    80,'XXCCAOOA    ',   0.0000,2,   5,   1,   1,1.02798,  11.2542,1.10000,0.90000,1.10000,0.90000
    81,'XXACOCOA    ',   0.0000,2,   5,   1,   1,1.02000,   9.8203,1.10000,0.90000,1.10000,0.90000
    82,'XXOAACAO    ',   0.0000,1,   5,   1,   1,1.01392,  10.7532,1.10000,0.90000,1.10000,0.90000
    83,'XXCA.COC    ',   0.0000,1,   5,   1,   1,0.99548,   3.6130,1.10000,0.90000,1.10000,0.90000
    84,'XXAOAAOC    ',   0.0000,2,   5,   1,   1,1.02988,  11.0382,1.10000,0.90000,1.10000,0.90000
    85,'XXCCOOOO    ',   0.0000,1,   5,   1,   1,1.03641,  12.5979,1.10000,0.90000,1.10000,0.90000
    86,'XXOAACCC    ',   0.0000,2,   5,   1,   1,1.03000,  13.8672,1.10000,0.90000,1.10000,0.90000
    87,'XXCAOOAA    ',   0.0000,1,   5,   1,   1,1.03345,  12.6890,1.10000,0.90000,1.10000,0.90000
    88,'XXACAACX    ',   0.0000,1,   5,   1,   1,1.02987,  10.9203,1.10000,0.90000,1.10000,0.90000
    89,'CXOCOOAO    ',   0.0000,1,   6,   1,   1,1.03159,  24.6052,1.10000,0.90000,1.10000,0.90000
    90,'CXACOACY    ',   0.0000,1,   6,   1,   1,1.03640,  26.6679,1.10000,0.90000,1.10000,0.90000
    91,'CXOAAOAO    ',   0.0000,2,   6,   1,   1,1.05064,  27.8103,1.10000,0.90000,1.10000,0.90000
    92,'CXCOAOCO    ',   0.0000,1,   6,   1,   1,1.02900,  26.2002,1.10000,0.90000,1.10000,0.90000
    93,'CXCCOCYC    ',   0.0000,1,   6,   1,   1,1.01614,  19.8038,1.10000,0.90000,1.10000,0.90000
    94,'CXACOOCA    ',   0.0000,1,   6,   1,   1,1.03026,  21.2945,1.10000,0.90000,1.10000,0.90000
    95,'CXCACOAC    ',   0.0000,1,   6,   1,   1,0.99877,  15.2864,1.10000,0.90000,1.10000,0.90000
    96,'CXCCACAC    ',   0.0000,2,   6,   1,   1,1.03000,  18.7187,1.10000,0.90000,1.10000,0.90000
    97,'CXCCACAC    ',   0.0000,1,   6,   1,   1,1.02702,  18.7866,1.10000,0.90000,1.10000,0.90000
    98,'CXCACACO    ',   0.0000,2,   6,   1,   1,0.99874,  14.8924,1.10000,0.90000,1.10000,0.90000
    99,'CXAOOCCA    ',   0.0000,1,   6,   1,   1,1.02099,  14.5731,1.10000,0.90000,1.10000,0.90000
   100,'CXCCOOCO    ',   0.0000,1,   6,   1,   1,0.97187,   6.6289,1.10000,0.90000,1.10000,0.90000
   101,'CXCOOCOC    ',   0.0000,1,   6,   1,   1,1.00727,  21.1473,1.10000,0.90000,1.10000,0.90000
   102,'CXCAOAAO    ',   0.0000,1,   6,   1,   1,1.01996,  16.6219,1.10000,0.90000,1.10000,0.90000
   103,'CXOCOCOA    ',   0.0000,1,   6,   1,   1,1.02602,  30.3125,1.10000,0.90000,1.10000,0.90000
   104,'CXCOCAAO    ',   0.0000,2,   6,   1,   1,1.03000,  30.9140,1.10000,0.90000,1.10000,0.90000
   105,'CXCOCAAO    ',   0.0000,1,   6,   1,   1,1.05743,  28.9845,1.10000,0.90000,1.10000,0.90000
   106,'CXCACCCO    ',   0.0000,1,   6,   1,   1,1.03217,  23.5202,1.10000,0.90000,1.10000,0.90000
   107,'CXCOOCCC    ',   0.0000,2,   7,   1,   1,1.03000,   8.4016,1.10000,0.90000,1.10000,0.90000
   108,'CXCOOCCC    ',   0.0000,2,   7,   1,   1,1.03000,   6.8300,1.10000,0.90000,1.10000,0.90000
   109,'CXCCOOCC    ',   0.0000,2,   7,   1,   1,1.03000,  13.5191,1.10000,0.90000,1.10000,0.90000
   110,'CXOCAOOO    ',   0.0000,1,   7,   1,   1,1.01803,  10.0090,1.10000,0.90000,1.10000,0.90000
   111,'CXOCAOOO    ',   0.0000,1,   7,   1,   1,1.03000,   4.2738,1.10000,0.90000,1.10000,0.90000
   112,'CXCCAAOO    ',   0.0000,1,   7,   1,   1,1.02032,  10.7684,1.10000,0.90000,1.10000,0.90000
   113,'CXCOOCOO    ',   0.0000,1,   7,   1,   1,1.02980,   0.3525,1.10000,0.90000,1.10000,0.90000
   114,'CXAOCOAA    ',   0.0000,1,   7,   1,   1,1.02472,   7.5616,1.10000,0.90000,1.10000,0.90000
   115,'CXCCAAOO    ',   0.0000,2,   7,   1,   1,1.03000,  10.5583,1.10000,0.90000,1.10000,0.90000
   116,'CXAACAAO    ',   0.0000,1,   7,   1,   1,0.96010,  -6.0827,1.10000,0.90000,1.10000,0.90000
   117,'CXOOOCCO    ',   0.0000,2,   7,   1,   1,1.00283,   2.1459,1.10000,0.90000,1.10000,0.90000
   118,'CXCCAAOO    ',   0.0000,2,   7,   1,   1,1.02957,  -4.1851,1.10000,0.90000,1.10000,0.90000
   119,'CXCOOCAA    ',   0.0000,1,   7,   1,   1,0.99967,  -2.7420,1.10000,0.90000,1.10000,0.90000
   120,'CXCOCAOC    ',   0.0000,1,   7,   1,   1,1.01406,  -3.8767,1.10000,0.90000,1.10000,0.90000
   121,'CXCCOCAO    ',   0.0000,1,   7,   1,   1,1.01758,  -4.4558,1.10000,0.90000,1.10000,0.90000
   122,'CXCOCOCC    ',   0.0000,2,   7,   1,   1,1.02854,  -2.6836,1.10000,0.90000,1.10000,0.90000
   123,'CXOOOCOO    ',   0.0000,1,   7,   1,   1,1.05403,   1.5868,1.10000,0.90000,1.10000,0.90000
   124,'CXOCCCAC    ',   0.0000,1,   7,   1,   1,1.01271,   9.9772,1.10000,0.90000,1.10000,0.90000
   125,'CXCOOCOO    ',   0.0000,1,   7,   1,   1,1.00001,   2.4482,1.10000,0.90000,1.10000,0.90000
   126,'CXCCAAOO    ',   0.0000,1,   7,   1,   1,0.96310,  -1.7626,1.10000,0.90000,1.10000,0.90000
   127,'CXCCOYCA    ',   0.0000,1,   8,   1,   1,1.02951,  10.7872,1.10000,0.90000,1.10000,0.90000
   128,'CXOCCOOO    ',   0.0000,2,   8,   1,   1,0.99639,   9.2630,1.10000,0.90000,1.10000,0.90000
   129,'CXOAOCOO    ',   0.0000,1,   8,   1,   1,1.01120,   9.5562,1.10000,0.90000,1.10000,0.90000
   130,'CXOCOCOC    ',   0.0000,1,   8,   1,   1,1.01547,  13.4924,1.10000,0.90000,1.10000,0.90000
   131,'CXCOXCOO    ',   0.0000,2,   8,   1,   1,1.03000,   9.8167,1.10000,0.90000,1.10000,0.90000
   132,'CXAOOCCC    ',   0.0000,1,   8,   1,   1,0.99198,   5.2135,1.10000,0.90000,1.10000,0.90000
   133,'CXOCYAAC    ',   0.0000,2,   8,   1,   1,1.00785,   4.1849,1.10000,0.90000,1.10000,0.90000
   134,'CXOCAOCA    ',   0.0000,2,   8,   1,   1,0.99893,   2.8313,1.10000,0.90000,1.10000,0.90000
   135,'CXCCCOAC    ',   0.0000,1,   8,   1,   1,1.03028,   8.1577,1.10000,0.90000,1.10000,0.90000
   136,'CXOCOAOO    ',   0.0000,2,   8,   1,   1,1.03000,  12.2532,1.10000,0.90000,1.10000,0.90000
   137,'CXCACAAA    ',   0.0000,2,   8,   1,   1,1.02000,   9.8240,1.10000,0.90000,1.10000,0.90000
   138,'CXOOOCCC    ',   0.0000,1,   8,   1,   1,1.00589,   3.8879,1.10000,0.90000,1.10000,0.90000
   139,'CXOCZOAO    ',   0.0000,1,   8,   1,   1,1.03022,   8.2698,1.10000,0.90000,1.10000,0.90000
   140,'CXOCZOAO    ',   0.0000,1,   8,   1,   1,1.01819,  11.9597,1.10000,0.90000,1.10000,0.90000
   141,'CXCOOOAO    ',   0.0000,2,   8,   1,   1,1.03000,  11.1446,1.10000,0.90000,1.10000,0.90000
   142,'CXOOCOCC    ',   0.0000,1,   8,   1,   1,1.03068,  10.9504,1.10000,0.90000,1.10000,0.90000
   143,'CXACACOO    ',   0.0000,1,   8,   1,   1,1.02267,   9.8111,1.10000,0.90000,1.10000,0.90000
   144,'CXCOOCCC    ',   0.0000,1,   8,   1,   1,1.00191,   9.0496,1.10000,0.90000,1.10000,0.90000
   145,'CXCCOOAO    ',   0.0000,1,   9,   1,   1,0.99187,   9.3459,1.10000,0.90000,1.10000,0.90000
   146,'CXCACAAO    ',   0.0000,1,   9,   1,   1,0.98517,  10.0096,1.10000,0.90000,1.10000,0.90000
   147,'CXAXCCOA    ',   0.0000,1,   9,   1,   1,1.02047,  14.3220,1.10000,0.90000,1.10000,0.90000
   148,'CXAOCOCC    ',   0.0000,1,   9,   1,   1,1.00961,   8.4349,1.10000,0.90000,1.10000,0.90000
   149,'CXCOCOOC    ',   0.0000,2,   9,   1,   1,1.03429,  32.3070,1.10000,0.90000,1.10000,0.90000
   150,'CXYCOOAO    ',   0.0000,1,   9,   1,   1,1.02311,  12.8844,1.10000,0.90000,1.10000,0.90000
   151,'CXCACAOO    ',   0.0000,1,   9,   1,   1,1.03380,  26.7046,1.10000,0.90000,1.10000,0.90000
   152,'CXCOOCAA    ',   0.0000,1,   9,   1,   1,1.05350,  17.8260,1.10000,0.90000,1.10000,0.90000
   153,'CXCACCOA    ',   0.0000,1,   9,   1,   1,1.04381,  15.8678,1.10000,0.90000,1.10000,0.90000
   154,'CXAOOOCA    ',   0.0000,1,   9,   1,   1,1.03898,  14.5464,1.10000,0.90000,1.10000,0.90000
   155,'CXOOAAOO    ',   0.0000,1,   9,   1,   1,1.04234,  13.8312,1.10000,0.90000,1.10000,0.90000
   156,'CXOCAAOO    ',   0.0000,1,   9,   1,   1,1.04693,  16.7674,1.10000,0.90000,1.10000,0.90000
   157,'CXOOOOOO    ',   0.0000,1,   9,   1,   1,1.05366,  21.3997,1.10000,0.90000,1.10000,0.90000
   158,'CXOOCOCO    ',   0.0000,1,   9,   1,   1,1.04786,  23.7417,1.10000,0.90000,1.10000,0.90000
   159,'CXACOOCC    ',   0.0000,1,   9,   1,   1,1.03896,  19.3344,1.10000,0.90000,1.10000,0.90000
   160,'CXOOCAAC    ',   0.0000,1,   9,   1,   1,1.04175,  28.0694,1.10000,0.90000,1.10000,0.90000
   161,'CXAOCOAA    ',   0.0000,1,   9,   1,   1,1.03009,  18.1182,1.10000,0.90000,1.10000,0.90000
   162,'CXOAOCAA    ',   0.0000,1,   9,   1,   1,1.02417,  19.3965,1.10000,0.90000,1.10000,0.90000
   163,'CXOAOCAA    ',   0.0000,1,   9,   1,   1,1.02395,  17.3373,1.10000,0.90000,1.10000,0.90000
   164,'CXOCOCCC    ',   0.0000,2,   9,   1,   1,1.04500,  29.0057,1.10000,0.90000,1.10000,0.90000
   165,'CXCOAAAA    ',   0.0000,1,   9,   1,   1,1.01007,  15.9476,1.10000,0.90000,1.10000,0.90000
   166,'CXCCOCAA    ',   0.0000,1,   9,   1,   1,1.02094,  22.0064,1.10000,0.90000,1.10000,0.90000
   167,'CXACOCCA    ',   0.0000,2,   9,   1,   1,1.00000,  14.9264,1.10000,0.90000,1.10000,0.90000
   168,'CXOCAAOO    ',   0.0000,1,   9,   1,   1,1.00721,  17.6087,1.10000,0.90000,1.10000,0.90000
   169,'CXOCACOO    ',   0.0000,1,   9,   1,   1,1.00321,  15.6669,1.10000,0.90000,1.10000,0.90000
   170,'CXYOOAAO    ',   0.0000,2,   9,   1,   1,1.03000,  78.8570,1.10000,0.90000,1.10000,0.90000
   171,'CXAOOOAO    ',   0.0000,2,   9,   1,   1,1.07481,  20.0116,1.10000,0.90000,1.10000,0.90000
   172,'CXAXCCOA    ',   0.0000,1,   9,   1,   1,1.00639,  13.9816,1.10000,0.90000,1.10000,0.90000
   173,'CXAXCCCO    ',   0.0000,1,   9,   1,   1,1.01528,  11.1138,1.10000,0.90000,1.10000,0.90000
   174,'CXAXCCCO    ',   0.0000,1,   9,   1,   1,1.01241,  14.9183,1.10000,0.90000,1.10000,0.90000
   175,'CXCAOOOO    ',   0.0000,1,   9,   1,   1,0.96452,  12.0121,1.10000,0.90000,1.10000,0.90000
   176,'CXAAOCCO    ',   0.0000,1,   9,   1,   1,1.02892,  17.3246,1.10000,0.90000,1.10000,0.90000
   177,'CXCCAOOA    ',   0.0000,2,   9,   1,   1,1.03000,  13.6704,1.10000,0.90000,1.10000,0.90000
   178,'CXCCAACA    ',   0.0000,1,   9,   1,   1,0.99809,   9.9991,1.10000,0.90000,1.10000,0.90000
   179,'CXAAAAOA    ',   0.0000,1,   9,   1,   1,1.03388,  21.3604,1.10000,0.90000,1.10000,0.90000
   180,'CXAAAAOA    ',   0.0000,1,   9,   1,   1,1.02862,  24.9374,1.10000,0.90000,1.10000,0.90000
   181,'CXCAACOC    ',   0.0000,2,   9,   1,   1,1.06127,  19.4728,1.10000,0.90000,1.10000,0.90000
   182,'CXCAACOC    ',   0.0000,2,   9,   1,   1,1.04137,  21.3597,1.10000,0.90000,1.10000,0.90000
   183,'CXCAOOAA    ',   0.0000,2,   9,   1,   1,1.05841,  18.8024,1.10000,0.90000,1.10000,0.90000
   184,'CXOAAOOC    ',   0.0000,1,   9,   1,   1,1.06705,  21.2106,1.10000,0.90000,1.10000,0.90000
   185,'CXOAAOOC    ',   0.0000,1,   9,   1,   1,1.04659,  24.3440,1.10000,0.90000,1.10000,0.90000
   186,'CXAAOOOA    ',   0.0000,1,   9,   1,   1,1.03090,  21.4631,1.10000,0.90000,1.10000,0.90000
   187,'CXCAOAOO    ',   0.0000,2,   9,   1,   1,1.02688,  20.2760,1.10000,0.90000,1.10000,0.90000
   188,'CXCACAOO    ',   0.0000,2,   9,   1,   1,1.05311,  26.0098,1.10000,0.90000,1.10000,0.90000
   189,'CXOCOCCC    ',   0.0000,2,   9,   1,   1,1.04500,  28.6282,1.10000,0.90000,1.10000,0.90000
   190,'CXAACCYC    ',   0.0000,1,   9,   1,   1,1.00266,  31.3630,1.10000,0.90000,1.10000,0.90000
   191,'CXCOOOCO    ',   0.0000,1,   9,   1,   1,1.02490,  23.2951,1.10000,0.90000,1.10000,0.90000
   192,'CXOOCOCA    ',   0.0000,1,   9,   1,   1,1.03985,  22.5713,1.10000,0.90000,1.10000,0.90000
   193,'CXCOCOAC    ',   0.0000,2,   9,   1,   1,1.02182,  25.4739,1.10000,0.90000,1.10000,0.90000
   194,'CXCOAOCA    ',   0.0000,1,   9,   1,   1,1.04668,  41.0958,1.10000,0.90000,1.10000,0.90000
   195,'CXCOAOCA    ',   0.0000,1,   9,   1,   1,1.03377,  40.6944,1.10000,0.90000,1.10000,0.90000
   196,'CXCCAAOA    ',   0.0000,2,   9,   1,   1,1.04000,  47.2649,1.10000,0.90000,1.10000,0.90000
   197,'CXCCAAOA    ',   0.0000,2,   9,   1,   1,1.03000,  46.0893,1.10000,0.90000,1.10000,0.90000
   198,'CXOCCOCC    ',   0.0000,1,   9,   1,   1,1.01663,  37.2332,1.10000,0.90000,1.10000,0.90000
   199,'CXCAOCOO    ',   0.0000,1,   9,   1,   1,1.03634,  26.5793,1.10000,0.90000,1.10000,0.90000
   200,'CXOOAAAO    ',   0.0000,1,   9,   1,   1,1.05933,  29.9691,1.10000,0.90000,1.10000,0.90000
...
0 / END OF BUS DATA, BEGIN LOAD DATA
@!   I,'ID',STAT,AREA,ZONE,      PL,        QL,        IP,        IQ,        YP,        YQ, OWNER,SCALE,INTRPT,  DGENP,     DGENQ, DGENF
     2,'1 ',   1,   1,   1,    88.200,    22.000,     0.000,     0.000,     0.000,     0.000,   1,    1,  0,     0.000,     0.000,   0
     3,'1 ',   1,   1,   1,    23.200,     7.500,     0.000,     0.000,     0.000,     0.000,   1,    1,  0,     0.000,     0.000,   0
     4,'1 ',   1,   1,   1,    41.700,    13.600,     0.000,     0.000,     0.000,     0.000,   1,    1,  0,     0.000,     0.000,   0
     6,'1 ',   1,   1,   1,    42.300,    10.800,     0.000,     0.000,     0.000,     0.000,   1,    1,  0,     0.000,     0.000,   0
     7,'1 ',   1,   1,   1,    31.500,     8.100,     0.000,     0.000,     0.000,     0.000,   1,    1,  0,     0.000,     0.000,   0
     8,'1 ',   1,   1,   1,     4.000,     1.000,     0.000,     0.000,     0.000,     0.000,   1,    1,  0,     0.000,     0.000,   0
     9,'1 ',   1,   1,   1,    36.000,     9.000,     0.000,     0.000,     0.000,     0.000,   1,    1,  0,     0.000,     0.000,   0
    10,'1 ',   1,   1,   1,    29.700,     9.900,     0.000,     0.000,     0.000,     0.000,   1,    1,  0,     0.000,     0.000,   0
    11,'1 ',   1,   1,   1,    14.400,     3.600,     0.000,     0.000,     0.000,     0.000,   1,    1,  0,     0.000,     0.000,   0
    12,'1 ',   1,   1,   1,    12.500,     4.100,     0.000,     0.000,     0.000,     0.000,   1,    1,  0,     0.000,     0.000,   0
    13,'1 ',   1,   1,   1,    16.200,     5.400,     0.000,     0.000,     0.000,     0.000,   1,    1,  0,     0.000,     0.000,   0
    15,'1 ',   1,   1,   1,     9.000,     2.200,     0.000,     0.000,     0.000,     0.000,   1,    1,  0,     0.000,     0.000,   0
    17,'1 ',   1,   1,   1,    27.000,     6.700,     0.000,     0.000,     0.000,     0.000,   1,    1,  0,     0.000,     0.000,   0
    18,'1 ',   1,   1,   1,    28.800,     9.600,     0.000,     0.000,     0.000,     0.000,   1,    1,  0,     0.000,     0.000,   0
    19,'1 ',   1,   1,   1,    15.100,     4.900,     0.000,     0.000,     0.000,     0.000,   1,    1,  0,     0.000,     0.000,   0
    20,'1 ',   1,   1,   1,    10.800,     3.100,     0.000,     0.000,     0.000,     0.000,   1,    1,  0,     0.000,     0.000,   0
    21,'1 ',   1,   1,   1,    22.500,     7.200,     0.000,     0.000,     0.000,     0.000,   1,    1,  0,     0.000,     0.000,   0
    22,'1 ',   1,   2,   1,    16.600,     4.100,     0.000,     0.000,     0.000,     0.000,   1,    1,  0,     0.000,     0.000,   0
    23,'1 ',   1,   2,   1,    20.700,     5.100,     0.000,     0.000,     0.000,     0.000,   1,    1,  0,     0.000,     0.000,   0
    24,'1 ',   1,   2,   1,    15.100,     3.900,     0.000,     0.000,     0.000,     0.000,   1,    1,  0,     0.000,     0.000,   0
    26,'1 ',   1,   2,   1,    60.800,     0.000,     0.000,     0.000,     0.000,     0.000,   1,    1,  0,     0.000,     0.000,   0
    27,'1 ',   1,   2,   1,   106.500,   -13.500,     0.000,     0.000,     0.000,     0.000,   1,    1,  0,     0.000,     0.000,   0
    28,'1 ',   1,   2,   1,    45.600,     7.200,     0.000,     0.000,     0.000,     0.000,   1,    1,  0,     0.000,     0.000,   0
    29,'1 ',   1,   2,   1,    15.100,     3.800,     0.000,     0.000,     0.000,     0.000,   1,    1,  0,     0.000,     0.000,   0
    30,'1 ',   1,   2,   1,    26.700,     6.800,     0.000,     0.000,     0.000,     0.000,   1,    1,  0,     0.000,     0.000,   0
    32,'1 ',   1,   2,   1,    24.900,     5.900,     0.000,     0.000,     0.000,     0.000,   1,    1,  0,     0.000,     0.000,   0
    34,'1 ',   1,   2,   1,    17.300,     4.300,     0.000,     0.000,     0.000,     0.000,   1,    1,  0,     0.000,     0.000,   0
    35,'1 ',   1,   2,   1,    22.500,    -1.800,     0.000,     0.000,     0.000,     0.000,   1,    1,  0,     0.000,     0.000,   0
    36,'1 ',   1,   2,   1,     8.900,     2.300,     0.000,     0.000,     0.000,     0.000,   1,    1,  0,     0.000,     0.000,   0
    37,'1 ',   1,   2,   1,    25.600,     6.800,     0.000,     0.000,     0.000,     0.000,   1,    1,  0,     0.000,     0.000,   0
    38,'1 ',   1,   2,   1,    27.600,     6.800,     0.000,     0.000,     0.000,     0.000,   1,    1,  0,     0.000,     0.000,   0
    39,'1 ',   1,   2,   1,    15.100,     3.800,     0.000,     0.000,     0.000,     0.000,   1,    1,  0,     0.000,     0.000,   0
    41,'1 ',   1,   2,   1,     9.400,     2.300,     0.000,     0.000,     0.000,     0.000,   1,    1,  0,     0.000,     0.000,   0
    44,'1 ',   1,   2,   1,    89.900,     0.000,     0.000,     0.000,     0.000,     0.000,   1,    1,  0,     0.000,     0.000,   0
    45,'1 ',   1,   2,   1,    57.900,    -6.300,     0.000,     0.000,     0.000,     0.000,   1,    1,  0,     0.000,     0.000,   0
    46,'1 ',   1,   2,   1,    39.800,     0.000,     0.000,     0.000,     0.000,     0.000,   1,    1,  0,     0.000,     0.000,   0
    50,'1 ',   1,   2,   1,     1.100,     0.400,     0.000,     0.000,     0.000,     0.000,   1,    1,  0,     0.000,     0.000,   0
    51,'1 ',   1,   3,   1,   100.300,    20.100,     0.000,     0.000,     0.000,     0.000,   1,    1,  0,     0.000,     0.000,   0
    52,'1 ',   1,   3,   1,    53.000,    11.400,     0.000,     0.000,     0.000,     0.000,   1,    1,  0,     0.000,     0.000,   0
    53,'1 ',   1,   3,   1,    45.300,    12.600,     0.000,     0.000,     0.000,     0.000,   1,    1,  0,     0.000,     0.000,   0
    54,'1 ',   1,   3,   1,   247.600,    49.500,     0.000,     0.000,     0.000,     0.000,   1,    1,  0,     0.000,     0.000,   0
    56,'1 ',   1,   3,   1,   138.600,    28.100,     0.000,     0.000,     0.000,     0.000,   1,    1,  0,     0.000,     0.000,   0
    57,'1 ',   1,   3,   1,    13.500,     2.800,     0.000,     0.000,     0.000,     0.000,   1,    1,  0,     0.000,     0.000,   0
    58,'1 ',   1,   3,   1,    32.400,     6.700,     0.000,     0.000,     0.000,     0.000,   1,    1,  0,     0.000,     0.000,   0
    60,'1 ',   1,   4,   1,    32.700,     4.800,     0.000,     0.000,     0.000,     0.000,   1,    1,  0,     0.000,     0.000,   0
    61,'1 ',   1,   4,   1,     4.000,     1.000,     0.000,     0.000,     0.000,     0.000,   1,    1,  0,     0.000,     0.000,   0
    64,'1 ',   1,   4,   1,    56.700,     6.300,     0.000,     0.000,     0.000,     0.000,   1,    1,  0,     0.000,     0.000,   0
    65,'1 ',   1,   4,   1,    12.300,    -0.400,     0.000,     0.000,     0.000,     0.000,   1,    1,  0,     0.000,     0.000,   0
    66,'1 ',   1,   4,   1,    53.600,     7.600,     0.000,     0.000,     0.000,     0.000,   1,    1,  0,     0.000,     0.000,   0
    68,'1 ',   1,   4,   1,     5.700,     1.800,     0.000,     0.000,     0.000,     0.000,   1,    1,  0,     0.000,     0.000,   0
    69,'1 ',   1,   4,   1,    37.900,     4.900,     0.000,     0.000,     0.000,     0.000,   1,    1,  0,     0.000,     0.000,   0
    70,'1 ',   1,   4,   1,    30.100,     2.500,     0.000,     0.000,     0.000,     0.000,   1,    1,  0,     0.000,     0.000,   0
    71,'1 ',   1,   4,   1,    17.500,     5.100,     0.000,     0.000,     0.000,     0.000,   1,    1,  0,     0.000,     0.000,   0
    72,'1 ',   1,   4,   1,    17.300,    -1.700,     0.000,     0.000,     0.000,     0.000,   1,    1,  0,     0.000,     0.000,   0
    73,'1 ',   1,   4,   1,     2.400,     0.600,     0.000,     0.000,     0.000,     0.000,   1,    1,  0,     0.000,     0.000,   0
    74,'1 ',   1,   4,   1,    36.000,     4.500,     0.000,     0.000,     0.000,     0.000,   1,    1,  0,     0.000,     0.000,   0
    75,'1 ',   1,   4,   1,    27.000,     4.500,     0.000,     0.000,     0.000,     0.000,   1,    1,  0,     0.000,     0.000,   0
    78,'1 ',   1,   5,   1,    79.200,     0.000,     0.000,     0.000,     0.000,     0.000,   1,    1,  0,     0.000,     0.000,   0
    79,'1 ',   1,   5,   1,   119.700,    24.300,     0.000,     0.000,     0.000,     0.000,   1,    1,  0,     0.000,     0.000,   0
    80,'1 ',   1,   5,   1,   128.700,    26.100,     0.000,     0.000,     0.000,     0.000,   1,    1,  0,     0.000,     0.000,   0
    81,'1 ',   1,   5,   1,    93.600,    18.900,     0.000,     0.000,     0.000,     0.000,   1,    1,  0,     0.000,     0.000,   0
    82,'1 ',   1,   5,   1,    36.000,     4.500,     0.000,     0.000,     0.000,     0.000,   1,    1,  0,     0.000,     0.000,   0
    83,'1 ',   1,   5,   1,    53.100,     0.000,     0.000,     0.000,     0.000,     0.000,   1,    1,  0,     0.000,     0.000,   0
    84,'1 ',   1,   5,   1,    96.300,    19.800,     0.000,     0.000,     0.000,     0.000,   1,    1,  0,     0.000,     0.000,   0
    86,'1 ',   1,   5,   1,    35.100,     4.500,     0.000,     0.000,     0.000,     0.000,   1,    1,  0,     0.000,     0.000,   0
    88,'1 ',   1,   5,   1,     5.400,     0.900,     0.000,     0.000,     0.000,     0.000,   1,    1,  0,     0.000,     0.000,   0
    90,'1 ',   1,   6,   1,     8.500,     2.100,     0.000,     0.000,     0.000,     0.000,   1,    1,  0,     0.000,     0.000,   0
    91,'1 ',   1,   6,   1,    13.700,     3.900,     0.000,     0.000,     0.000,     0.000,   1,    1,  0,     0.000,     0.000,   0
    92,'1 ',   1,   6,   1,    10.300,     2.500,     0.000,     0.000,     0.000,     0.000,   1,    1,  0,     0.000,     0.000,   0
    93,'1 ',   1,   6,   1,    13.000,     3.200,     0.000,     0.000,     0.000,     0.000,   1,    1,  0,     0.000,     0.000,   0
    94,'1 ',   1,   6,   1,    17.000,     4.700,     0.000,     0.000,     0.000,     0.000,   1,    1,  0,     0.000,     0.000,   0
    95,'1 ',   1,   6,   1,    31.400,     9.600,     0.000,     0.000,     0.000,     0.000,   1,    1,  0,     0.000,     0.000,   0
    96,'1 ',   1,   6,   1,    29.900,     7.800,     0.000,     0.000,     0.000,     0.000,   1,    1,  0,     0.000,     0.000,   0
    98,'1 ',   1,   6,   1,    17.600,     5.300,     0.000,     0.000,     0.000,     0.000,   1,    1,  0,     0.000,     0.000,   0
    99,'1 ',   1,   6,   1,    36.800,     2.200,     0.000,     0.000,     0.000,     0.000,   1,    1,  0,     0.000,     0.000,   0
   100,'1 ',   1,   6,   1,    55.500,     8.400,     0.000,     0.000,     0.000,     0.000,   1,    1,  0,     0.000,     0.000,   0
   101,'1 ',   1,   6,   1,    13.900,     3.400,     0.000,     0.000,     0.000,     0.000,   1,    1,  0,     0.000,     0.000,   0
   102,'1 ',   1,   6,   1,    18.200,     4.900,     0.000,     0.000,     0.000,     0.000,   1,    1,  0,     0.000,     0.000,   0
   103,'1 ',   1,   6,   1,    22.000,     5.500,     0.000,     0.000,     0.000,     0.000,   1,    1,  0,     0.000,     0.000,   0
   106,'1 ',   1,   6,   1,     4.800,     1.200,     0.000,     0.000,     0.000,     0.000,   1,    1,  0,     0.000,     0.000,   0
   108,'1 ',   1,   7,   1,    63.400,    20.300,     0.000,     0.000,     0.000,     0.000,   1,    1,  0,     0.000,     0.000,   0
   109,'1 ',   1,   7,   1,    66.800,    22.500,     0.000,     0.000,     0.000,     0.000,   1,    1,  0,     0.000,     0.000,   0
   111,'1 ',   1,   7,   1,    55.000,    18.600,     0.000,     0.000,     0.000,     0.000,   1,    1,  0,     0.000,     0.000,   0
   113,'1 ',   1,   7,   1,    31.500,    10.500,     0.000,     0.000,     0.000,     0.000,   1,    1,  0,     0.000,     0.000,   0
   114,'1 ',   1,   7,   1,    26.100,     8.900,     0.000,     0.000,     0.000,     0.000,   1,    1,  0,     0.000,     0.000,   0
   115,'1 ',   1,   7,   1,    30.300,    10.100,     0.000,     0.000,     0.000,     0.000,   1,    1,  0,     0.000,     0.000,   0
   117,'1 ',   1,   7,   1,    49.900,    16.900,     0.000,     0.000,     0.000,     0.000,   1,    1,  0,     0.000,     0.000,   0
   118,'1 ',   1,   7,   1,    43.400,    14.100,     0.000,     0.000,     0.000,     0.000,   1,    1,  0,     0.000,     0.000,   0
   119,'1 ',   1,   7,   1,    16.400,     5.500,     0.000,     0.000,     0.000,     0.000,   1,    1,  0,     0.000,     0.000,   0
   122,'1 ',   1,   7,   1,     1.700,     0.500,     0.000,     0.000,     0.000,     0.000,   1,    1,  0,     0.000,     0.000,   0
   123,'1 ',   1,   7,   1,    14.300,     4.800,     0.000,     0.000,     0.000,     0.000,   1,    1,  0,     0.000,     0.000,   0
   127,'1 ',   1,   8,   1,     0.900,     0.000,     0.000,     0.000,     0.000,     0.000,   1,    1,  0,     0.000,     0.000,   0
   128,'1 ',   1,   8,   1,    17.800,     5.100,     0.000,     0.000,     0.000,     0.000,   1,    1,  0,     0.000,     0.000,   0
   129,'1 ',   1,   8,   1,    40.100,    11.400,     0.000,     0.000,     0.000,     0.000,   1,    1,  0,     0.000,     0.000,   0
   131,'1 ',   1,   8,   1,    35.800,     9.100,     0.000,     0.000,     0.000,     0.000,   1,    1,  0,     0.000,     0.000,   0
   132,'1 ',   1,   8,   1,    23.100,     6.400,     0.000,     0.000,     0.000,     0.000,   1,    1,  0,     0.000,     0.000,   0
   133,'1 ',   1,   8,   1,    77.500,    20.900,     0.000,     0.000,     0.000,     0.000,   1,    1,  0,     0.000,     0.000,   0
   134,'1 ',   1,   8,   1,    36.000,    10.800,     0.000,     0.000,     0.000,     0.000,   1,    1,  0,     0.000,     0.000,   0
   135,'1 ',   1,   8,   1,    33.700,    10.300,     0.000,     0.000,     0.000,     0.000,   1,    1,  0,     0.000,     0.000,   0
   136,'1 ',   1,   8,   1,    27.000,     6.300,     0.000,     0.000,     0.000,     0.000,   1,    1,  0,     0.000,     0.000,   0
   137,'1 ',   1,   8,   1,    76.500,    22.500,     0.000,     0.000,     0.000,     0.000,   1,    1,  0,     0.000,     0.000,   0
   138,'1 ',   1,   8,   1,    27.000,     7.200,     0.000,     0.000,     0.000,     0.000,   1,    1,  0,     0.000,     0.000,   0
   139,'1 ',   1,   8,   1,    36.000,     9.000,     0.000,     0.000,     0.000,     0.000,   1,    1,  0,     0.000,     0.000,   0
   141,'1 ',   1,   8,   1,    99.000,    27.000,     0.000,     0.000,     0.000,     0.000,   1,    1,  0,     0.000,     0.000,   0
   143,'1 ',   1,   8,   1,    30.400,     7.100,     0.000,     0.000,     0.000,     0.000,   1,    1,  0,     0.000,     0.000,   0
   144,'1 ',   1,   8,   1,    18.600,     5.900,     0.000,     0.000,     0.000,     0.000,   1,    1,  0,     0.000,     0.000,   0
   147,'1 ',   1,   9,   1,    40.800,    13.400,     0.000,     0.000,     0.000,     0.000,   1,    1,  0,     0.000,     0.000,   0
   149,'1 ',   1,   9,   1,    55.000,    18.100,     0.000,     0.000,     0.000,     0.000,   1,    1,  0,     0.000,     0.000,   0
   150,'1 ',   1,   9,   1,     6.500,     2.200,     0.000,     0.000,     0.000,     0.000,   1,    1,  0,     0.000,     0.000,   0
   152,'1 ',   1,   9,   1,     2.700,     0.900,     0.000,     0.000,     0.000,     0.000,   1,    1,  0,     0.000,     0.000,   0
   153,'1 ',   1,   9,   1,     6.500,     2.200,     0.000,     0.000,     0.000,     0.000,   1,    1,  0,     0.000,     0.000,   0
   154,'1 ',   1,   9,   1,    11.000,     3.600,     0.000,     0.000,     0.000,     0.000,   1,    1,  0,     0.000,     0.000,   0
   155,'1 ',   1,   9,   1,     8.500,     2.800,     0.000,     0.000,     0.000,     0.000,   1,    1,  0,     0.000,     0.000,   0
   156,'1 ',   1,   9,   1,     7.500,     2.400,     0.000,     0.000,     0.000,     0.000,   1,    1,  0,     0.000,     0.000,   0
   157,'1 ',   1,   9,   1,     4.400,     1.400,     0.000,     0.000,     0.000,     0.000,   1,    1,  0,     0.000,     0.000,   0
   158,'1 ',   1,   9,   1,     3.900,     1.300,     0.000,     0.000,     0.000,     0.000,   1,    1,  0,     0.000,     0.000,   0
   159,'1 ',   1,   9,   1,     3.700,     1.200,     0.000,     0.000,     0.000,     0.000,   1,    1,  0,     0.000,     0.000,   0
   160,'1 ',   1,   9,   1,    21.400,     7.000,     0.000,     0.000,     0.000,     0.000,   1,    1,  0,     0.000,     0.000,   0
   161,'1 ',   1,   9,   1,     0.500,     0.200,     0.000,     0.000,     0.000,     0.000,   1,    1,  0,     0.000,     0.000,   0
   163,'1 ',   1,   9,   1,     1.000,     0.400,     0.000,     0.000,     0.000,     0.000,   1,    1,  0,     0.000,     0.000,   0
   165,'1 ',   1,   9,   1,     6.000,     2.000,     0.000,     0.000,     0.000,     0.000,   1,    1,  0,     0.000,     0.000,   0
   166,'1 ',   1,   9,   1,     7.700,     2.500,     0.000,     0.000,     0.000,     0.000,   1,    1,  0,     0.000,     0.000,   0
   167,'1 ',   1,   9,   1,    75.300,    24.800,     0.000,     0.000,     0.000,     0.000,   1,    1,  0,     0.000,     0.000,   0
   168,'1 ',   1,   9,   1,     9.500,     3.100,     0.000,     0.000,     0.000,     0.000,   1,    1,  0,     0.000,     0.000,   0
   169,'1 ',   1,   9,   1,     4.800,     1.500,     0.000,     0.000,     0.000,     0.000,   1,    1,  0,     0.000,     0.000,   0
   171,'1 ',   1,   9,   1,    11.000,     3.600,     0.000,     0.000,     0.000,     0.000,   1,    1,  0,     0.000,     0.000,   0
   173,'1 ',   1,   9,   1,    35.800,    11.800,     0.000,     0.000,     0.000,     0.000,   1,    1,  0,     0.000,     0.000,   0
   175,'1 ',   1,   9,   1,    47.500,    15.300,     0.000,     0.000,     0.000,     0.000,   1,    1,  0,     0.000,     0.000,   0
   178,'1 ',   1,   9,   1,    22.400,     7.400,     0.000,     0.000,     0.000,     0.000,   1,    1,  0,     0.000,     0.000,   0
   179,'1 ',   1,   9,   1,    35.200,    11.500,     0.000,     0.000,     0.000,     0.000,   1,    1,  0,     0.000,     0.000,   0
   183,'1 ',   1,   9,   1,    16.400,     5.400,     0.000,     0.000,     0.000,     0.000,   1,    1,  0,     0.000,     0.000,   0
   184,'1 ',   1,   9,   1,    18.400,     6.000,     0.000,     0.000,     0.000,     0.000,   1,    1,  0,     0.000,     0.000,   0
   186,'1 ',   1,   9,   1,    11.000,     3.400,     0.000,     0.000,     0.000,     0.000,   1,    1,  0,     0.000,     0.000,   0
   187,'1 ',   1,   9,   1,    32.600,    10.700,     0.000,     0.000,     0.000,     0.000,   1,    1,  0,     0.000,     0.000,   0
   188,'1 ',   1,   9,   1,     8.400,     2.800,     0.000,     0.000,     0.000,     0.000,   1,    1,  0,     0.000,     0.000,   0
   190,'1 ',   1,   9,   1,    16.200,     4.400,     0.000,     0.000,     0.000,     0.000,   1,    1,  0,     0.000,     0.000,   0
   191,'1 ',   1,   9,   1,    11.200,     3.700,     0.000,     0.000,     0.000,     0.000,   1,    1,  0,     0.000,     0.000,   0
   192,'1 ',   1,   9,   1,    12.000,     0.100,     0.000,     0.000,     0.000,     0.000,   1,    1,  0,     0.000,     0.000,   0
   193,'1 ',   1,   9,   1,    25.200,     8.300,     0.000,     0.000,     0.000,     0.000,   1,    1,  0,     0.000,     0.000,   0
   194,'1 ',   1,   9,   1,    46.100,    14.500,     0.000,     0.000,     0.000,     0.000,   1,    1,  0,     0.000,     0.000,   0
   198,'1 ',   1,   9,   1,    15.100,     4.600,     0.000,     0.000,     0.000,     0.000,   1,    1,  0,     0.000,     0.000,   0
   199,'1 ',   1,   9,   1,     5.900,     1.500,     0.000,     0.000,     0.000,     0.000,   1,    1,  0,     0.000,     0.000,   0
   200,'1 ',   1,   9,   1,    13.400,     4.000,     0.000,     0.000,     0.000,     0.000,   1,    1,  0,     0.000,     0.000,   0
   202,'1 ',   1,   9,   1,    65.200,    21.500,     0.000,     0.000,     0.000,     0.000,   1,    1,  0,     0.000,     0.000,   0
   204,'1 ',   1,   9,   1,    29.800,     9.600,     0.000,     0.000,     0.000,     0.000,   1,    1,  0,     0.000,     0.000,   0
   206,'1 ',   1,   9,   1,    37.900,     8.200,     0.000,     0.000,     0.000,     0.000,   1,    1,  0,     0.000,     0.000,   0
   207,'1 ',   1,   9,   1,    17.800,     4.900,     0.000,     0.000,     0.000,     0.000,   1,    1,  0,     0.000,     0.000,   0
   209,'1 ',   1,   9,   1,     6.500,     2.200,     0.000,     0.000,     0.000,     0.000,   1,    1,  0,     0.000,     0.000,   0
   210,'1 ',   1,   9,   1,     7.000,     2.300,     0.000,     0.000,     0.000,     0.000,   1,    1,  0,     0.000,     0.000,   0
   211,'1 ',   1,   9,   1,    61.300,    19.100,     0.000,     0.000,     0.000,     0.000,   1,    1,  0,     0.000,     0.000,   0
   212,'1 ',   1,   9,   1,     9.000,     2.900,     0.000,     0.000,     0.000,     0.000,   1,    1,  0,     0.000,     0.000,   0
   213,'1 ',   1,   9,   1,     4.500,     1.400,     0.000,     0.000,     0.000,     0.000,   1,    1,  0,     0.000,     0.000,   0
   214,'1 ',   1,   9,   1,     5.300,     1.700,     0.000,     0.000,     0.000,     0.000,   1,    1,  0,     0.000,     0.000,   0
   217,'1 ',   1,   9,   1,    14.800,     4.900,     0.000,     0.000,     0.000,     0.000,   1,    1,  0,     0.000,     0.000,   0
   218,'1 ',   1,   9,   1,     8.300,     2.700,     0.000,     0.000,     0.000,     0.000,   1,    1,  0,     0.000,     0.000,   0
   219,'1 ',   1,   9,   1,    57.900,    17.300,     0.000,     0.000,     0.000,     0.000,   1,    1,  0,     0.000,     0.000,   0
   221,'1 ',   1,   9,   1,     6.900,     2.200,     0.000,     0.000,     0.000,     0.000,   1,    1,  0,     0.000,     0.000,   0
   222,'1 ',   1,   9,   1,    12.400,     3.600,     0.000,     0.000,     0.000,     0.000,   1,    1,  0,     0.000,     0.000,   0
   223,'1 ',   1,   9,   1,    10.700,     3.200,     0.000,     0.000,     0.000,     0.000,   1,    1,  0,     0.000,     0.000,   0
   224,'1 ',   1,   9,   1,    15.000,     4.700,     0.000,     0.000,     0.000,     0.000,   1,    1,  0,     0.000,     0.000,   0
   225,'1 ',   1,   9,   1,    14.400,     4.300,     0.000,     0.000,     0.000,     0.000,   1,    1,  0,     0.000,     0.000,   0
   226,'1 ',   1,   9,   1,    20.000,    -0.100,     0.000,     0.000,     0.000,     0.000,   1,    1,  0,     0.000,     0.000,   0
   228,'1 ',   1,   9,   1,     2.800,     0.600,     0.000,     0.000,     0.000,     0.000,   1,    1,  0,     0.000,     0.000,   0
   229,'1 ',   1,   9,   1,     4.700,     1.500,     0.000,     0.000,     0.000,     0.000,   1,    1,  0,     0.000,     0.000,   0
   230,'1 ',   1,   9,   1,    17.000,     1.100,     0.000,     0.000,     0.000,     0.000,   1,    1,  0,     0.000,     0.000,   0
   231,'1 ',   1,   9,   1,    12.600,     4.100,     0.000,     0.000,     0.000,     0.000,   1,    1,  0,     0.000,     0.000,   0
   232,'1 ',   1,   9,   1,    15.900,     5.200,     0.000,     0.000,     0.000,     0.000,   1,    1,  0,     0.000,     0.000,   0
   233,'1 ',   1,   9,   1,    15.200,     5.000,     0.000,     0.000,     0.000,     0.000,   1,    1,  0,     0.000,     0.000,   0
   234,'1 ',   1,   9,   1,    19.300,     6.400,     0.000,     0.000,     0.000,     0.000,   1,    1,  0,     0.000,     0.000,   0
   235,'1 ',   1,   9,   1,    28.200,     9.300,     0.000,     0.000,     0.000,     0.000,   1,    1,  0,     0.000,     0.000,   0
   236,'1 ',   1,   9,   1,     9.700,     3.200,     0.000,     0.000,     0.000,     0.000,   1,    1,  0,     0.000,     0.000,   0
   238,'1 ',   1,   9,   1,    42.200,    12.900,     0.000,     0.000,     0.000,     0.000,   1,    1,  0,     0.000,     0.000,   0
   240,'1 ',   1,   9,   1,    12.600,     4.100,     0.000,     0.000,     0.000,     0.000,   1,    1,  0,     0.000,     0.000,   0
   241,'1 ',   1,   9,   1,    11.300,     2.800,     0.000,     0.000,     0.000,     0.000,   1,    1,  0,     0.000,     0.000,   0
   242,'1 ',   1,   9,   1,    35.500,    11.800,     0.000,     0.000,     0.000,     0.000,   1,    1,  0,     0.000,     0.000,   0
   249,'1 ',   1,  10,   1,    41.800,    13.800,     0.000,     0.000,     0.000,     0.000,   1,    1,  0,     0.000,     0.000,   0
   250,'1 ',   1,  10,   1,     8.100,     2.700,     0.000,     0.000,     0.000,     0.000,   1,    1,  0,     0.000,     0.000,   0
   252,'1 ',   1,  10,   1,     5.800,     1.800,     0.000,     0.000,     0.000,     0.000,   1,    1,  0,     0.000,     0.000,   0
   253,'1 ',   1,  10,   1,    55.300,    17.200,     0.000,     0.000,     0.000,     0.000,   1,    1,  0,     0.000,     0.000,   0
   254,'1 ',   1,  10,   1,    11.500,     3.600,     0.000,     0.000,     0.000,     0.000,   1,    1,  0,     0.000,     0.000,   0
   255,'1 ',   1,  10,   1,    10.400,     3.400,     0.000,     0.000,     0.000,     0.000,   1,    1,  0,     0.000,     0.000,   0
   256,'1 ',   1,  10,   1,     9.700,     2.600,     0.000,     0.000,     0.000,     0.000,   1,    1,  0,     0.000,     0.000,   0
   257,'1 ',   1,  10,   1,     7.200,     2.200,     0.000,     0.000,     0.000,     0.000,   1,    1,  0,     0.000,     0.000,   0
   258,'1 ',   1,  10,   1,     7.500,     2.400,     0.000,     0.000,     0.000,     0.000,   1,    1,  0,     0.000,     0.000,   0
   259,'1 ',   1,  10,   1,    13.900,     4.100,     0.000,     0.000,     0.000,     0.000,   1,    1,  0,     0.000,     0.000,   0
   260,'1 ',   1,  10,   1,     5.100,     1.700,     0.000,     0.000,     0.000,     0.000,   1,    1,  0,     0.000,     0.000,   0
   261,'1 ',   1,  10,   1,     7.100,     2.300,     0.000,     0.000,     0.000,     0.000,   1,    1,  0,     0.000,     0.000,   0
   262,'1 ',   1,  10,   1,    19.900,     6.000,     0.000,     0.000,     0.000,     0.000,   1,    1,  0,     0.000,     0.000,   0
   264,'1 ',   1,  10,   1,    13.300,     4.100,     0.000,     0.000,     0.000,     0.000,   1,    1,  0,     0.000,     0.000,   0
   265,'1 ',   1,  10,   1,    22.100,     6.400,     0.000,     0.000,     0.000,     0.000,   1,    1,  0,     0.000,     0.000,   0
   266,'1 ',   1,  10,   1,    23.200,     7.000,     0.000,     0.000,     0.000,     0.000,   1,    1,  0,     0.000,     0.000,   0
   267,'1 ',   1,  10,   1,     7.500,     2.400,     0.000,     0.000,     0.000,     0.000,   1,    1,  0,     0.000,     0.000,   0
   268,'1 ',   1,  10,   1,     8.900,     2.500,     0.000,     0.000,     0.000,     0.000,   1,    1,  0,     0.000,     0.000,   0
   270,'1 ',   1,  10,   1,     4.000,     1.300,     0.000,     0.000,     0.000,     0.000,   1,    1,  0,     0.000,     0.000,   0
   271,'1 ',   1,  11,   1,    13.500,     4.500,     0.000,     0.000,     0.000,     0.000,   1,    1,  0,     0.000,     0.000,   0
   272,'1 ',   1,  16,   1,    28.400,    13.600,     0.000,     0.000,     0.000,     0.000,   1,    1,  0,     0.000,     0.000,   0
   273,'1 ',   1,  16,   1,     2.800,     1.400,     0.000,     0.000,     0.000,     0.000,   1,    1,  0,     0.000,     0.000,   0
   274,'1 ',   1,  16,   1,    19.700,     9.200,     0.000,     0.000,     0.000,     0.000,   1,    1,  0,     0.000,     0.000,   0
   275,'1 ',   1,  16,   1,     3.500,     5.200,     0.000,     0.000,     0.000,     0.000,   1,    1,  0,     0.000,     0.000,   0
   277,'1 ',   1,  16,   1,    11.600,     5.300,     0.000,     0.000,     0.000,     0.000,   1,    1,  0,     0.000,     0.000,   0
...
0 / END OF LOAD DATA, BEGIN FIXED SHUNT DATA
@!   I,'ID',STATUS,  GL,        BL
    76,'1 ',1,     0.000,  -100.000
   108,'1 ',1,     0.000,     5.400
   130,'1 ',1,     0.000,   -50.000
   131,'1 ',1,     0.000,     5.400
   133,'1 ',1,     0.000,    20.000
   134,'1 ',1,     0.000,    10.000
   136,'1 ',1,     0.000,     5.000
   137,'1 ',1,     0.000,     5.000
   139,'1 ',1,     0.000,    10.000
   142,'1 ',1,     0.000,   -25.000
   150,'1 ',1,     0.000,     1.200
   151,'1 ',1,     0.000,  -100.000
   163,'1 ',1,     0.000,   -16.500
   171,'1 ',1,     0.000,     3.000
   179,'1 ',1,     0.000,     1.700
   187,'1 ',1,     0.000,     2.700
   199,'1 ',1,     0.000,    10.800
   206,'1 ',1,     0.000,    21.000
   219,'1 ',1,     0.000,   -30.000
   221,'1 ',1,     0.000,   -12.000
   222,'1 ',1,     0.000,     5.400
   224,'1 ',1,     0.000,     5.400
   229,'1 ',1,     0.000,    -5.000
   243,'1 ',1,     0.000,  -125.000
   246,'1 ',1,     0.000,   -75.000
   271,'1 ',1,     0.000,   -75.000
   279,'1 ',1,     0.000,     5.400
   286,'1 ',1,     0.000,   -50.000
   296,'1 ',1,     0.000,    17.400
   299,'1 ',1,     0.000,     3.000
   316,'1 ',1,     0.000,    10.800
   325,'1 ',1,     0.000,    21.600
   326,'1 ',1,     0.000,    21.600
   329,'1 ',1,     0.000,    10.800
   330,'1 ',1,     0.000,    10.800
   331,'1 ',1,     0.000,    10.800
   332,'1 ',1,     0.000,    22.200
   336,'1 ',1,     0.000,     5.400
   340,'1 ',1,     0.000,     5.400
   352,'1 ',1,     0.000,     5.400
   354,'1 ',1,     0.000,     5.400
   355,'1 ',1,     0.000,     5.400
   358,'1 ',1,     0.000,    10.800
   362,'1 ',1,     0.000,     5.400
   364,'1 ',1,     0.000,     2.700
   370,'1 ',1,     0.000,    14.200
   379,'1 ',1,     0.000,     5.400
   390,'1 ',1,     0.000,     5.400
   410,'1 ',1,     0.000,     5.400
   413,'1 ',1,     0.000,     4.500
   414,'1 ',1,     0.000,    13.500
   416,'1 ',1,     0.000,     8.600
   417,'1 ',1,     0.000,     7.200
   419,'1 ',1,     0.000,     7.200
   422,'1 ',1,     0.000,    14.400
   427,'1 ',1,     0.000,     6.000
   429,'1 ',1,     0.000,    26.800
   432,'1 ',1,     0.000,    12.000
   440,'1 ',1,     0.000,    26.800
   452,'1 ',1,     0.000,     3.700
   453,'1 ',1,     0.000,     1.200
   454,'1 ',1,     0.000,     4.000
   455,'1 ',1,     0.000,     8.000
   457,'1 ',1,     0.000,     9.000
   458,'1 ',1,     0.000,   -75.000
   460,'1 ',1,     0.000,   -50.000
   468,'1 ',1,     0.000,     2.000
   478,'1 ',1,     0.000,     2.000
   483,'1 ',1,     0.000,    25.000
   488,'1 ',1,     0.000,     3.000
   498,'1 ',1,     0.000,    24.000
   504,'1 ',1,     0.000,     8.000
   506,'1 ',1,     0.000,    24.000
   507,'1 ',1,     0.000,     9.000
   509,'1 ',1,     0.000,     5.000
   522,'1 ',1,     0.000,     9.000
   523,'1 ',1,     0.000,     3.000
   525,'1 ',1,     0.000,     4.000
   526,'1 ',1,     0.000,     5.000
   528,'1 ',1,     0.000,     8.000
   530,'1 ',1,     0.000,     8.000
   532,'1 ',1,     0.000,     8.000
   533,'1 ',1,     0.000,     4.000
   551,'1 ',1,     0.000,     2.000
   554,'1 ',1,     0.000,     4.000
   555,'1 ',1,     0.000,    10.000
   559,'1 ',1,     0.000,     3.000
   560,'1 ',1,     0.000,     5.000
   561,'1 ',1,     0.000,     3.000
   562,'1 ',1,     0.000,    22.000
   563,'1 ',1,     0.000,     5.000
   565,'1 ',1,     0.000,    11.000
   643,'1 ',1,     0.000,   108.000
   651,'1 ',1,     0.000,    36.000
   657,'1 ',1,     0.000,    36.000
   672,'1 ',1,     0.000,    36.000
   683,'1 ',1,     0.000,    36.000
   685,'1 ',1,     0.000,    36.000
   686,'1 ',1,     0.000,    36.000
   696,'1 ',1,     0.000,    36.000
   720,'1 ',1,     0.000,    36.000
   737,'1 ',1,     0.000,   108.000
   781,'1 ',1,     0.000,    36.000
   782,'1 ',1,     0.000,    36.000
   825,'1 ',1,     0.000,    36.000
   826,'1 ',1,     0.000,    36.000
   827,'1 ',1,     0.000,    36.000
   828,'1 ',1,     0.000,    36.000
   836,'1 ',1,     0.000,    36.000
   839,'1 ',1,     0.000,    36.000
   852,'1 ',1,     0.000,    36.000
   853,'1 ',1,     0.000,    36.000
   864,'1 ',1,     0.000,  -150.000
   938,'1 ',1,     0.000,    15.000
   950,'1 ',1,     0.000,   -50.000
   970,'1 ',1,     0.000,   -50.000
  1120,'1 ',1,     0.000,    18.000
  1197,'1 ',1,     0.000,  -140.000
  1198,'1 ',1,     0.000,   -85.000
  1205,'1 ',1,     0.000,   -35.000
  1206,'1 ',1,     0.000,   -70.000
  1217,'1 ',1,     0.000,    20.000
  1218,'1 ',1,     0.000,   -70.000
  1220,'1 ',1,     0.000,   -70.000
  1221,'1 ',1,     0.000,    20.000
  1242,'1 ',1,     0.000,    21.000
  1255,'1 ',1,     0.000,    21.000
  1258,'1 ',1,     0.000,    20.000
  1264,'1 ',1,     0.000,    32.000
  1270,'1 ',1,     0.000,    53.000
  1276,'1 ',1,     0.000,  -280.000
  1279,'1 ',1,     0.000,    21.000
  1280,'1 ',1,     0.000,    21.000
  1281,'1 ',1,     0.000,    21.000
  1283,'1 ',1,     0.000,    21.000
  1286,'1 ',1,     0.000,    21.000
  1299,'1 ',1,     0.000,     7.000
  1304,'1 ',1,     0.000,    21.000
  1305,'1 ',1,     0.000,  -140.000
  1306,'1 ',1,     0.000,     7.000
  1310,'1 ',1,     0.000,    14.000
  1311,'1 ',1,     0.000,    21.000
  1317,'1 ',1,     0.000,   -35.000
  1319,'1 ',1,     0.000,   -70.000
  1320,'1 ',1,     0.000,    21.000
  1322,'1 ',1,     0.000,    10.000
  1326,'1 ',1,     0.000,    10.000
  1363,'1 ',1,     0.000,    11.000
  1370,'1 ',1,     0.000,   -28.000
  1389,'1 ',1,     0.000,   -70.000
  1399,'1 ',1,     0.000,    21.000
  1427,'1 ',1,     0.000,    21.000
  1435,'1 ',1,     0.000,  -100.000
  1440,'1 ',1,     0.000,   -50.000
  1475,'1 ',1,     0.000,    21.000
  1487,'1 ',1,     0.000,   -75.000
  1497,'1 ',1,     0.000,  -100.000
  1548,'1 ',1,     0.000,    60.000
  1559,'1 ',1,     0.000,     4.000
  1568,'1 ',1,     0.000,   -75.000
  1580,'1 ',1,     0.000,    40.000
  1586,'1 ',1,     0.000,  -100.000
  1592,'1 ',1,     0.000,    21.600
  1593,'1 ',1,     0.000,     6.100
  1596,'1 ',1,     0.000,   -50.000
  1597,'1 ',1,     0.000,   -70.000
  1598,'1 ',1,     0.000,    10.800
  1604,'1 ',1,     0.000,    45.200
  1606,'1 ',1,     0.000,   -20.000
  1609,'1 ',1,     0.000,    18.000
  1610,'1 ',1,     0.000,     6.000
  1611,'1 ',1,     0.000,     6.000
  1612,'1 ',1,     0.000,     7.200
  1613,'1 ',1,     0.000,    10.800
  1618,'1 ',1,     0.000,    25.200
  1621,'1 ',1,     0.000,     6.000
  1624,'1 ',1,     0.000,    10.800
  1627,'1 ',1,     0.000,   -24.000
  1629,'1 ',1,     0.000,   -32.000
  1630,'1 ',1,     0.000,   -25.000
  1633,'1 ',1,     0.000,    48.000
  1646,'1 ',1,     0.000,   -30.000
0 / END OF FIXED SHUNT DATA, BEGIN GENERATOR DATA
@!   I,'ID',      PG,        QG,        QT,        QB,     VS,    IREG,NREG,     MBASE,     ZR,         ZX,         RT,         XT,     GTAP,STAT, RMPCT,      PT,        PB,BASLOD,O1,    F1,  O2,    F2,  O3,    F3,  O4,    F4,WMOD, WPF
     4,'1 ',    19.000,     2.000,     2.000,    -2.000,1.03000,     4,   0,    21.015, 0.00000E+0, 2.30000E-1, 0.00000E+0, 0.00000E+0,1.00000,1,  100.0,  9999.000, -9999.000, 0,   1,1.0000
     6,'1 ',    72.000,    15.819,    37.000,   -30.000,1.03000,     6,   0,    81.078, 0.00000E+0, 2.30000E-1, 0.00000E+0, 0.00000E+0,1.00000,1,  100.0,  9999.000, -9999.000, 0,   1,1.0000
    15,'1 ',     8.000,     2.000,     2.000,    -2.000,1.03000,    15,   0,     9.071, 0.00000E+0, 2.30000E-1, 0.00000E+0, 0.00000E+0,1.00000,1,  100.0,  9999.000, -9999.000, 0,   1,1.0000
    18,'1 ',     8.000,     3.000,     3.000,    -3.000,1.03000,    18,   0,     9.398, 0.00000E+0, 2.30000E-1, 0.00000E+0, 0.00000E+0,1.00000,1,  100.0,  9999.000, -9999.000, 0,   1,1.0000
    21,'1 ',     0.000,     0.100,     0.100,    -0.100,1.03000,    21,   0,     0.110, 0.00000E+0, 2.30000E-1, 0.00000E+0, 0.00000E+0,1.00000,1,  100.0,  9999.000, -9999.000, 0,   1,1.0000
    26,'1 ',   213.100,   -50.341,   125.200,  -101.000,1.05000,    26,   0,   240.981, 0.00000E+0, 2.30000E-1, 0.00000E+0, 0.00000E+0,1.00000,1,  100.0,  9999.000, -9999.000, 0,   1,1.0000
    27,'1 ',   142.000,    35.133,    66.600,   -49.000,1.05000,    27,   0,   160.880, 0.00000E+0, 2.30000E-1, 0.00000E+0, 0.00000E+0,1.00000,1,  100.0,  9999.000, -9999.000, 0,   1,1.0000
    28,'1 ',     0.000,     0.100,     0.100,     0.000,1.03000,    28,   0,     0.110, 0.00000E+0, 2.30000E-1, 0.00000E+0, 0.00000E+0,1.00000,1,  100.0,  9999.000, -9999.000, 0,   1,1.0000
    41,'1 ',   400.000,    16.535,   200.000,  -150.000,1.03000,    41,   0,   440.331, 0.00000E+0, 2.30000E-1, 0.00000E+0, 0.00000E+0,1.00000,1,  100.0,  9999.000, -9999.000, 0,   1,1.0000
    44,'1 ',    13.000,    -3.197,    17.000,   -13.000,1.05000,    44,   0,    14.818, 0.00000E+0, 2.30000E-1, 0.00000E+0, 0.00000E+0,1.00000,1,  100.0,  9999.000, -9999.000, 0,   1,1.0000
    51,'1 ',   131.000,    11.018,    44.000,   -32.000,1.03000,    51,   0,   144.605, 0.00000E+0, 2.30000E-1, 0.00000E+0, 0.00000E+0,1.00000,1,  100.0,  9999.000, -9999.000, 0,   1,1.0000
    53,'1 ',     4.500,     1.800,     1.800,     1.800,1.01470,    53,   0,     5.331, 0.00000E+0, 2.30000E-1, 0.00000E+0, 0.00000E+0,1.00000,1,  100.0,  9999.000, -9999.000, 0,   1,1.0000
    54,'1 ',    60.500,    22.000,    22.000,   -25.000,1.03000,    54,   0,    70.813, 0.00000E+0, 2.30000E-1, 0.00000E+0, 0.00000E+0,1.00000,1,  100.0,  9999.000, -9999.000, 0,   1,1.0000
    56,'1 ',     2.000,     0.000,     0.000,     0.000,1.02230,    56,   0,     2.200, 0.00000E+0, 2.30000E-1, 0.00000E+0, 0.00000E+0,1.00000,1,  100.0,  9999.000, -9999.000, 0,   1,1.0000
    57,'1 ',     7.700,     0.000,     0.000,     0.000,1.00930,    57,   0,     8.470, 0.00000E+0, 2.30000E-1, 0.00000E+0, 0.00000E+0,1.00000,1,  100.0,  9999.000, -9999.000, 0,   1,1.0000
    58,'1 ',     7.700,     0.000,     0.000,     0.000,0.98840,    58,   0,     8.470, 0.00000E+0, 2.30000E-1, 0.00000E+0, 0.00000E+0,1.00000,1,  100.0,  9999.000, -9999.000, 0,   1,1.0000
    63,'1 ',   151.600,    37.060,    75.000,   -50.000,1.03000,    63,   0,   171.578, 0.00000E+0, 2.30000E-1, 0.00000E+0, 0.00000E+0,1.00000,1,  100.0,  9999.000, -9999.000, 0,   1,1.0000
    69,'1 ',     1.000,     0.000,     0.000,     0.000,1.01060,    69,   0,     1.100, 0.00000E+0, 2.30000E-1, 0.00000E+0, 0.00000E+0,1.00000,1,  100.0,  9999.000, -9999.000, 0,   1,1.0000
    79,'1 ',    68.800,     0.000,    20.300,     0.000,1.02000,    79,   0,    75.680, 0.00000E+0, 2.30000E-1, 0.00000E+0, 0.00000E+0,1.00000,1,  100.0,  9999.000, -9999.000, 0,   1,1.0000
    80,'1 ',    80.200,   -10.000,    33.300,   -10.000,1.02000,    80,   0,    88.903, 0.00000E+0, 2.30000E-1, 0.00000E+0, 0.00000E+0,1.00000,1,  100.0,  9999.000, -9999.000, 0,   1,1.0000
    81,'1 ',    31.200,    11.433,    12.700,     0.000,1.02000,    81,   0,    36.526, 0.00000E+0, 2.30000E-1, 0.00000E+0, 0.00000E+0,1.00000,1,  100.0,  9999.000, -9999.000, 0,   1,1.0000
    84,'1 ',    70.800,    24.700,    24.700,     0.000,1.03000,    84,   0,    82.483, 0.00000E+0, 2.30000E-1, 0.00000E+0, 0.00000E+0,1.00000,1,  100.0,  9999.000, -9999.000, 0,   1,1.0000
    86,'1 ',    80.000,     7.560,    35.000,   -20.000,1.03000,    86,   0,    88.391, 0.00000E+0, 2.30000E-1, 0.00000E+0, 0.00000E+0,1.00000,1,  100.0,  9999.000, -9999.000, 0,   1,1.0000
    91,'1 ',    15.000,    -6.000,     9.000,    -6.000,1.03000,    91,   0,    17.771, 0.00000E+0, 2.30000E-1, 0.00000E+0, 0.00000E+0,1.00000,1,  100.0,  9999.000, -9999.000, 0,   1,1.0000
...